
# Packages
 &PACKAGES
 useshap_filt=.TRUE.,
 useDiagnostics=.TRUE.,
 &
