
# PTRACERS

 &PTRACERS_PARM01
 PTRACERS_numInUse=1,
 PTRACERS_advScheme=33,
 PTRACERS_diffKh=0.0,
 PTRACERS_diffKr=3.0E-5,
 PTRACERS_initialFile='Your_IC_file.bin' ,
 PTRACERS_names='Age_tracer' 
 &

