
# Packages
 &PACKAGES
 useMNC=.TRUE.,
 usePTRACERS=.TRUE.,
 useDiagnostics=.TRUE.,
 &
