
# PTRACERS

 &PTRACERS_PARM01
 PTRACERS_numInUse=1,
 PTRACERS_advScheme=80,
 PTRACERS_diffKh=0,
 PTRACERS_diffK4=0.1,
 PTRACERS_diffKr=0,
 PTRACERS_Iter0=259200,
 PTRACERS_initialFile='dye.bin' ,
 PTRACERS_names='Dye' 
 &

